28
# (40) 3-methoxy-L-tyrosine_0_1
O -4.566412 -0.326460 0.467343
O 4.071131 -1.157152 0.263286
O -3.933867 1.411539 -0.825193
N -2.250669 -0.897181 1.363201
C -1.413039 -0.206457 -0.906754
C -2.237909 0.194433 0.326244
C 0.047499 -0.463191 -0.612395
C 0.904570 0.610918 -0.316575
C 0.563554 -1.757076 -0.609033
C 2.241836 0.384139 -0.023954
C 1.910157 -1.991741 -0.314245
C -3.725001 0.460758 -0.046671
C 2.750057 -0.931168 -0.022251
H -1.528017 0.613607 -1.620678
H -1.863341 -1.097559 -1.357753
H -1.815262 1.085579 0.790310
H 0.514003 1.621505 -0.321958
H -0.083860 -2.595168 -0.846840
H 2.315987 -2.997475 -0.314173
H -1.622141 -1.672089 1.140816
H -3.249331 -1.203009 1.355318
H 4.484334 -0.297273 0.428993
H -2.013384 -0.549340 2.292567
O 3.169248 1.343338 0.274038
C 2.745800 2.704490 0.289201
H 1.963859 2.865760 1.039301
H 3.627835 3.290884 0.549720
H 2.378058 3.014103 -0.695226
