
  xtb     11152109363D
 xtb: 6.4.1 (afa7bdf)
 28 28  0     0  0            999 V2000
   -4.5043   -0.3255    0.4804 O   0  0  0  0  0  0  0  0  0  0  0  0
    4.0208   -1.1590    0.3429 O   0  0  0  0  0  0  0  0  0  0  0  0
   -3.8970    1.4940   -0.6795 O   0  0  0  0  0  0  0  0  0  0  0  0
   -2.2487   -1.0097    1.2819 N   0  0  0  0  0  0  0  0  0  0  0  0
   -1.4049   -0.1687   -0.8994 C   0  0  0  0  0  0  0  0  0  0  0  0
   -2.1811    0.1557    0.3777 C   0  0  0  0  0  0  0  0  0  0  0  0
    0.0456   -0.4370   -0.6037 C   0  0  0  0  0  0  0  0  0  0  0  0
    0.9031    0.6291   -0.3406 C   0  0  0  0  0  0  0  0  0  0  0  0
    0.5362   -1.7311   -0.5435 C   0  0  0  0  0  0  0  0  0  0  0  0
    2.2297    0.4050   -0.0247 C   0  0  0  0  0  0  0  0  0  0  0  0
    1.8654   -1.9684   -0.2295 C   0  0  0  0  0  0  0  0  0  0  0  0
   -3.6868    0.4959    0.0105 C   0  0  0  0  0  0  0  0  0  0  0  0
    2.7195   -0.9130    0.0341 C   0  0  0  0  0  0  0  0  0  0  0  0
   -1.5138    0.6854   -1.5698 H   0  0  0  0  0  0  0  0  0  0  0  0
   -1.8633   -1.0308   -1.3867 H   0  0  0  0  0  0  0  0  0  0  0  0
   -1.7466    1.0256    0.8695 H   0  0  0  0  0  0  0  0  0  0  0  0
    0.5149    1.6336   -0.3990 H   0  0  0  0  0  0  0  0  0  0  0  0
   -0.1050   -2.5688   -0.7711 H   0  0  0  0  0  0  0  0  0  0  0  0
    2.2613   -2.9699   -0.1875 H   0  0  0  0  0  0  0  0  0  0  0  0
   -1.7017   -1.7997    0.9296 H   0  0  0  0  0  0  0  0  0  0  0  0
   -3.2997   -1.2149    1.2397 H   0  0  0  0  0  0  0  0  0  0  0  0
    4.4774   -0.3148    0.4868 H   0  0  0  0  0  0  0  0  0  0  0  0
   -1.9760   -0.7996    2.2432 H   0  0  0  0  0  0  0  0  0  0  0  0
    3.1620    1.3771    0.2504 O   0  0  0  0  0  0  0  0  0  0  0  0
    2.7558    2.7293    0.2117 C   0  0  0  0  0  0  0  0  0  0  0  0
    1.9724    2.9269    0.9475 H   0  0  0  0  0  0  0  0  0  0  0  0
    3.6449    3.3039    0.4611 H   0  0  0  0  0  0  0  0  0  0  0  0
    2.4057    3.0081   -0.7854 H   0  0  0  0  0  0  0  0  0  0  0  0
  4  6  1  0  0  0  0
  5  6  1  0  0  0  0
  5  7  1  0  0  0  0
  7  8  4  0  0  0  0
  7  9  4  0  0  0  0
  8 10  4  0  0  0  0
  9 11  4  0  0  0  0
  1 12  4  0  0  0  0
  3 12  2  0  0  0  0
  6 12  1  0  0  0  0
  2 13  1  0  0  0  0
 10 13  4  0  0  0  0
 11 13  4  0  0  0  0
  5 14  1  0  0  0  0
  5 15  1  0  0  0  0
  6 16  1  0  0  0  0
  8 17  1  0  0  0  0
  9 18  1  0  0  0  0
 11 19  1  0  0  0  0
  4 20  1  0  0  0  0
  4 21  1  0  0  0  0
  2 22  1  0  0  0  0
  4 23  1  0  0  0  0
 10 24  1  0  0  0  0
 24 25  1  0  0  0  0
 25 26  1  0  0  0  0
 25 27  1  0  0  0  0
 25 28  1  0  0  0  0
M  END
