
  xtb     11152109233D
 xtb: 6.4.1 (afa7bdf)
 26 26  0     0  0            999 V2000
    3.8827    1.3995    0.5687 O   0  0  0  0  0  0  0  0  0  0  0  0
   -4.3335   -0.5025   -0.2805 O   0  0  0  0  0  0  0  0  0  0  0  0
    4.3167   -0.6280   -0.3228 O   0  0  0  0  0  0  0  0  0  0  0  0
    1.9629   -1.0684   -1.2098 N   0  0  0  0  0  0  0  0  0  0  0  0
   -3.2006    1.9519   -0.4344 N   0  0  0  0  0  0  0  0  0  0  0  0
    1.2016    0.0687    0.8948 C   0  0  0  0  0  0  0  0  0  0  0  0
    2.0671    0.1769   -0.3720 C   0  0  0  0  0  0  0  0  0  0  0  0
   -0.2729   -0.1056    0.6121 C   0  0  0  0  0  0  0  0  0  0  0  0
   -1.0484    0.9859    0.2015 C   0  0  0  0  0  0  0  0  0  0  0  0
   -0.8794   -1.3575    0.7212 C   0  0  0  0  0  0  0  0  0  0  0  0
   -2.4058    0.8573   -0.0936 C   0  0  0  0  0  0  0  0  0  0  0  0
   -2.2363   -1.5104    0.4217 C   0  0  0  0  0  0  0  0  0  0  0  0
    3.5710    0.3407   -0.0113 C   0  0  0  0  0  0  0  0  0  0  0  0
   -2.9931   -0.4204    0.0214 C   0  0  0  0  0  0  0  0  0  0  0  0
    1.3854    0.9850    1.4618 H   0  0  0  0  0  0  0  0  0  0  0  0
    1.5683   -0.7692    1.4982 H   0  0  0  0  0  0  0  0  0  0  0  0
    1.7397    1.0179   -0.9831 H   0  0  0  0  0  0  0  0  0  0  0  0
   -0.5916    1.9680    0.1106 H   0  0  0  0  0  0  0  0  0  0  0  0
   -0.3019   -2.2153    1.0516 H   0  0  0  0  0  0  0  0  0  0  0  0
   -2.7154   -2.4817    0.5053 H   0  0  0  0  0  0  0  0  0  0  0  0
    1.2101   -1.6914   -0.9079 H   0  0  0  0  0  0  0  0  0  0  0  0
    2.9004   -1.5078   -1.0862 H   0  0  0  0  0  0  0  0  0  0  0  0
   -2.6812    2.7151   -0.8486 H   0  0  0  0  0  0  0  0  0  0  0  0
   -4.0048    1.7059   -0.9969 H   0  0  0  0  0  0  0  0  0  0  0  0
   -4.6195   -1.4209   -0.1952 H   0  0  0  0  0  0  0  0  0  0  0  0
    1.8248   -0.8552   -2.1982 H   0  0  0  0  0  0  0  0  0  0  0  0
  4  7  1  0  0  0  0
  6  7  1  0  0  0  0
  6  8  1  0  0  0  0
  8  9  4  0  0  0  0
  8 10  4  0  0  0  0
  5 11  1  0  0  0  0
  9 11  4  0  0  0  0
 10 12  4  0  0  0  0
  1 13  2  0  0  0  0
  3 13  4  0  0  0  0
  7 13  1  0  0  0  0
  2 14  1  0  0  0  0
 11 14  4  0  0  0  0
 12 14  4  0  0  0  0
  6 15  1  0  0  0  0
  6 16  1  0  0  0  0
  7 17  1  0  0  0  0
  9 18  1  0  0  0  0
 10 19  1  0  0  0  0
 12 20  1  0  0  0  0
  4 21  1  0  0  0  0
  4 22  1  0  0  0  0
  5 23  1  0  0  0  0
  5 24  1  0  0  0  0
  2 25  1  0  0  0  0
  4 26  1  0  0  0  0
M  END
