
  xtb     11152109233D
 xtb: 6.4.1 (afa7bdf)
 18 18  0     0  0            999 V2000
    1.3273   -1.7064   -0.0037 C   0  0  0  0  0  0  0  0  0  0  0  0
   -0.0369   -1.3944    0.0072 C   0  0  0  0  0  0  0  0  0  0  0  0
   -0.4496   -0.0667    0.0164 C   0  0  0  0  0  0  0  0  0  0  0  0
    0.4988    0.9816    0.0131 C   0  0  0  0  0  0  0  0  0  0  0  0
    1.8536    0.6476   -0.0051 C   0  0  0  0  0  0  0  0  0  0  0  0
    2.2688   -0.6848   -0.0106 C   0  0  0  0  0  0  0  0  0  0  0  0
    3.3290   -0.9144   -0.0242 H   0  0  0  0  0  0  0  0  0  0  0  0
    2.5844    1.4511   -0.0152 H   0  0  0  0  0  0  0  0  0  0  0  0
    0.0619    2.3061    0.0834 N   0  0  0  0  0  0  0  0  0  0  0  0
    0.7251    2.9670   -0.3008 H   0  0  0  0  0  0  0  0  0  0  0  0
   -0.8611    2.4426   -0.3077 H   0  0  0  0  0  0  0  0  0  0  0  0
   -0.7701   -2.1909    0.0073 H   0  0  0  0  0  0  0  0  0  0  0  0
    1.6370   -2.7456   -0.0093 H   0  0  0  0  0  0  0  0  0  0  0  0
   -1.7589    0.3465    0.0250 O   0  0  0  0  0  0  0  0  0  0  0  0
   -2.7722   -0.6509   -0.0224 C   0  0  0  0  0  0  0  0  0  0  0  0
   -3.7230   -0.1154   -0.0272 H   0  0  0  0  0  0  0  0  0  0  0  0
   -2.6929   -1.2589   -0.9311 H   0  0  0  0  0  0  0  0  0  0  0  0
   -2.7302   -1.3060    0.8554 H   0  0  0  0  0  0  0  0  0  0  0  0
  1  2  4  0  0  0  0
  2  3  4  0  0  0  0
  3  4  4  0  0  0  0
  4  5  4  0  0  0  0
  1  6  4  0  0  0  0
  5  6  4  0  0  0  0
  6  7  1  0  0  0  0
  5  8  1  0  0  0  0
  4  9  1  0  0  0  0
  9 10  1  0  0  0  0
  9 11  1  0  0  0  0
  2 12  1  0  0  0  0
  1 13  1  0  0  0  0
  3 14  1  0  0  0  0
 14 15  1  0  0  0  0
 15 16  1  0  0  0  0
 15 17  1  0  0  0  0
 15 18  1  0  0  0  0
M  END
