
  xtb     11152109233D
 xtb: 6.4.1 (afa7bdf)
 28 28  0     0  0            999 V2000
   -4.5664   -0.3265    0.4673 O   0  0  0  0  0  0  0  0  0  0  0  0
    4.0711   -1.1572    0.2633 O   0  0  0  0  0  0  0  0  0  0  0  0
   -3.9339    1.4115   -0.8252 O   0  0  0  0  0  0  0  0  0  0  0  0
   -2.2507   -0.8972    1.3632 N   0  0  0  0  0  0  0  0  0  0  0  0
   -1.4130   -0.2065   -0.9068 C   0  0  0  0  0  0  0  0  0  0  0  0
   -2.2379    0.1944    0.3262 C   0  0  0  0  0  0  0  0  0  0  0  0
    0.0475   -0.4632   -0.6124 C   0  0  0  0  0  0  0  0  0  0  0  0
    0.9046    0.6109   -0.3166 C   0  0  0  0  0  0  0  0  0  0  0  0
    0.5636   -1.7571   -0.6090 C   0  0  0  0  0  0  0  0  0  0  0  0
    2.2418    0.3841   -0.0240 C   0  0  0  0  0  0  0  0  0  0  0  0
    1.9102   -1.9917   -0.3142 C   0  0  0  0  0  0  0  0  0  0  0  0
   -3.7250    0.4608   -0.0467 C   0  0  0  0  0  0  0  0  0  0  0  0
    2.7501   -0.9312   -0.0223 C   0  0  0  0  0  0  0  0  0  0  0  0
   -1.5280    0.6136   -1.6207 H   0  0  0  0  0  0  0  0  0  0  0  0
   -1.8633   -1.0976   -1.3578 H   0  0  0  0  0  0  0  0  0  0  0  0
   -1.8153    1.0856    0.7903 H   0  0  0  0  0  0  0  0  0  0  0  0
    0.5140    1.6215   -0.3220 H   0  0  0  0  0  0  0  0  0  0  0  0
   -0.0839   -2.5952   -0.8468 H   0  0  0  0  0  0  0  0  0  0  0  0
    2.3160   -2.9975   -0.3142 H   0  0  0  0  0  0  0  0  0  0  0  0
   -1.6221   -1.6721    1.1408 H   0  0  0  0  0  0  0  0  0  0  0  0
   -3.2493   -1.2030    1.3553 H   0  0  0  0  0  0  0  0  0  0  0  0
    4.4843   -0.2973    0.4290 H   0  0  0  0  0  0  0  0  0  0  0  0
   -2.0134   -0.5493    2.2926 H   0  0  0  0  0  0  0  0  0  0  0  0
    3.1692    1.3433    0.2740 O   0  0  0  0  0  0  0  0  0  0  0  0
    2.7458    2.7045    0.2892 C   0  0  0  0  0  0  0  0  0  0  0  0
    1.9639    2.8658    1.0393 H   0  0  0  0  0  0  0  0  0  0  0  0
    3.6278    3.2909    0.5497 H   0  0  0  0  0  0  0  0  0  0  0  0
    2.3781    3.0141   -0.6952 H   0  0  0  0  0  0  0  0  0  0  0  0
  4  6  1  0  0  0  0
  5  6  1  0  0  0  0
  5  7  1  0  0  0  0
  7  8  4  0  0  0  0
  7  9  4  0  0  0  0
  8 10  4  0  0  0  0
  9 11  4  0  0  0  0
  1 12  4  0  0  0  0
  3 12  2  0  0  0  0
  6 12  1  0  0  0  0
  2 13  1  0  0  0  0
 10 13  4  0  0  0  0
 11 13  4  0  0  0  0
  5 14  1  0  0  0  0
  5 15  1  0  0  0  0
  6 16  1  0  0  0  0
  8 17  1  0  0  0  0
  9 18  1  0  0  0  0
 11 19  1  0  0  0  0
  4 20  1  0  0  0  0
  4 21  1  0  0  0  0
  2 22  1  0  0  0  0
  4 23  1  0  0  0  0
 10 24  1  0  0  0  0
 24 25  1  0  0  0  0
 25 26  1  0  0  0  0
 25 27  1  0  0  0  0
 25 28  1  0  0  0  0
M  END
