
  xtb     11152109363D
 xtb: 6.4.1 (afa7bdf)
 26 26  0     0  0            999 V2000
    3.9096    1.3675    0.5255 O   0  0  0  0  0  0  0  0  0  0  0  0
   -4.2895   -0.5324   -0.3549 O   0  0  0  0  0  0  0  0  0  0  0  0
    4.2341   -0.6701   -0.3489 O   0  0  0  0  0  0  0  0  0  0  0  0
    1.9168   -1.0780   -1.1693 N   0  0  0  0  0  0  0  0  0  0  0  0
   -3.1590    1.9330   -0.4572 N   0  0  0  0  0  0  0  0  0  0  0  0
    1.1995    0.0887    0.8986 C   0  0  0  0  0  0  0  0  0  0  0  0
    2.0165    0.1747   -0.3926 C   0  0  0  0  0  0  0  0  0  0  0  0
   -0.2653   -0.0915    0.6049 C   0  0  0  0  0  0  0  0  0  0  0  0
   -1.0299    0.9914    0.1901 C   0  0  0  0  0  0  0  0  0  0  0  0
   -0.8578   -1.3417    0.6936 C   0  0  0  0  0  0  0  0  0  0  0  0
   -2.3779    0.8562   -0.1228 C   0  0  0  0  0  0  0  0  0  0  0  0
   -2.2023   -1.5021    0.3810 C   0  0  0  0  0  0  0  0  0  0  0  0
    3.5498    0.3271   -0.0278 C   0  0  0  0  0  0  0  0  0  0  0  0
   -2.9617   -0.4244   -0.0243 C   0  0  0  0  0  0  0  0  0  0  0  0
    1.3747    1.0089    1.4579 H   0  0  0  0  0  0  0  0  0  0  0  0
    1.5747   -0.7407    1.5017 H   0  0  0  0  0  0  0  0  0  0  0  0
    1.7069    1.0418   -0.9748 H   0  0  0  0  0  0  0  0  0  0  0  0
   -0.5758    1.9693    0.1241 H   0  0  0  0  0  0  0  0  0  0  0  0
   -0.2929   -2.1941    1.0405 H   0  0  0  0  0  0  0  0  0  0  0  0
   -2.6577   -2.4788    0.4599 H   0  0  0  0  0  0  0  0  0  0  0  0
    1.2240   -1.7175   -0.7681 H   0  0  0  0  0  0  0  0  0  0  0  0
    2.9123   -1.4500   -1.0512 H   0  0  0  0  0  0  0  0  0  0  0  0
   -2.6882    2.7570   -0.7875 H   0  0  0  0  0  0  0  0  0  0  0  0
   -4.0438    1.7147   -0.8838 H   0  0  0  0  0  0  0  0  0  0  0  0
   -4.5906   -1.4424   -0.2260 H   0  0  0  0  0  0  0  0  0  0  0  0
    1.7197   -0.9281   -2.1600 H   0  0  0  0  0  0  0  0  0  0  0  0
  4  7  1  0  0  0  0
  6  7  1  0  0  0  0
  6  8  1  0  0  0  0
  8  9  4  0  0  0  0
  8 10  4  0  0  0  0
  5 11  1  0  0  0  0
  9 11  4  0  0  0  0
 10 12  4  0  0  0  0
  1 13  2  0  0  0  0
  3 13  4  0  0  0  0
  7 13  1  0  0  0  0
  2 14  1  0  0  0  0
 11 14  4  0  0  0  0
 12 14  4  0  0  0  0
  6 15  1  0  0  0  0
  6 16  1  0  0  0  0
  7 17  1  0  0  0  0
  9 18  1  0  0  0  0
 10 19  1  0  0  0  0
 12 20  1  0  0  0  0
  4 21  1  0  0  0  0
  4 22  1  0  0  0  0
  5 23  1  0  0  0  0
  5 24  1  0  0  0  0
  2 25  1  0  0  0  0
  4 26  1  0  0  0  0
M  END
