
  xtb     11152109233D
 xtb: 6.4.1 (afa7bdf)
 14 14  0     0  0            999 V2000
   -1.8323   -1.2991    0.0060 C   0  0  0  0  0  0  0  0  0  0  0  0
   -2.3543   -0.0052    0.0010 C   0  0  0  0  0  0  0  0  0  0  0  0
   -1.5121    1.0980   -0.0032 C   0  0  0  0  0  0  0  0  0  0  0  0
   -0.1133    0.9537   -0.0079 C   0  0  0  0  0  0  0  0  0  0  0  0
    0.3824   -0.3608   -0.0017 C   0  0  0  0  0  0  0  0  0  0  0  0
   -0.4514   -1.4721    0.0059 C   0  0  0  0  0  0  0  0  0  0  0  0
   -0.0151   -2.4641    0.0131 H   0  0  0  0  0  0  0  0  0  0  0  0
    0.7164    2.0606   -0.0773 N   0  0  0  0  0  0  0  0  0  0  0  0
    0.2862    2.9171    0.2457 H   0  0  0  0  0  0  0  0  0  0  0  0
    1.6419    1.9315    0.3090 H   0  0  0  0  0  0  0  0  0  0  0  0
   -1.9226    2.1031   -0.0030 H   0  0  0  0  0  0  0  0  0  0  0  0
   -3.4283    0.1483    0.0050 H   0  0  0  0  0  0  0  0  0  0  0  0
   -2.4858   -2.1635    0.0110 H   0  0  0  0  0  0  0  0  0  0  0  0
    2.1291   -0.6108   -0.0024 Cl  0  0  0  0  0  0  0  0  0  0  0  0
  1  2  4  0  0  0  0
  2  3  4  0  0  0  0
  3  4  4  0  0  0  0
  4  5  4  0  0  0  0
  1  6  4  0  0  0  0
  5  6  4  0  0  0  0
  6  7  1  0  0  0  0
  4  8  1  0  0  0  0
  8  9  1  0  0  0  0
  8 10  1  0  0  0  0
  3 11  1  0  0  0  0
  2 12  1  0  0  0  0
  1 13  1  0  0  0  0
  5 14  1  0  0  0  0
M  END
