
  xtb     11152109233D
 xtb: 6.4.1 (afa7bdf)
 19 19  0     0  0            999 V2000
   -0.9100   -0.0117   -0.3467 C   0  0  0  0  0  0  0  0  0  0  0  0
   -0.1804   -1.1994   -0.2347 C   0  0  0  0  0  0  0  0  0  0  0  0
    1.1964   -1.1921   -0.0243 C   0  0  0  0  0  0  0  0  0  0  0  0
    1.8731    0.0233    0.0792 C   0  0  0  0  0  0  0  0  0  0  0  0
    1.1676    1.2219   -0.0326 C   0  0  0  0  0  0  0  0  0  0  0  0
   -0.2074    1.1944   -0.2431 C   0  0  0  0  0  0  0  0  0  0  0  0
    1.7037    2.1619    0.0421 H   0  0  0  0  0  0  0  0  0  0  0  0
   -0.7459    2.1337   -0.3328 H   0  0  0  0  0  0  0  0  0  0  0  0
    3.2295    0.0943    0.2857 O   0  0  0  0  0  0  0  0  0  0  0  0
    3.5820   -0.8027    0.3482 H   0  0  0  0  0  0  0  0  0  0  0  0
    1.7494   -2.1235    0.0549 H   0  0  0  0  0  0  0  0  0  0  0  0
   -0.6959   -2.1521   -0.3176 H   0  0  0  0  0  0  0  0  0  0  0  0
   -2.4101   -0.0286   -0.5351 C   0  0  0  0  0  0  0  0  0  0  0  0
   -2.7112    0.8314   -1.1441 H   0  0  0  0  0  0  0  0  0  0  0  0
   -2.6975   -0.9275   -1.0920 H   0  0  0  0  0  0  0  0  0  0  0  0
   -3.1790    0.0057    0.7956 C   0  0  0  0  0  0  0  0  0  0  0  0
   -4.2605   -0.0060    0.6233 H   0  0  0  0  0  0  0  0  0  0  0  0
   -2.9254   -0.8597    1.4174 H   0  0  0  0  0  0  0  0  0  0  0  0
   -2.9365    0.9090    1.3656 H   0  0  0  0  0  0  0  0  0  0  0  0
  1  2  4  0  0  0  0
  2  3  4  0  0  0  0
  3  4  4  0  0  0  0
  4  5  4  0  0  0  0
  1  6  4  0  0  0  0
  5  6  4  0  0  0  0
  5  7  1  0  0  0  0
  6  8  1  0  0  0  0
  4  9  1  0  0  0  0
  9 10  1  0  0  0  0
  3 11  1  0  0  0  0
  2 12  1  0  0  0  0
  1 13  1  0  0  0  0
 13 14  1  0  0  0  0
 13 15  1  0  0  0  0
 13 16  1  0  0  0  0
 16 17  1  0  0  0  0
 16 18  1  0  0  0  0
 16 19  1  0  0  0  0
M  END
