26
# (41) 3-nitro-L-tyrosine_0_1
O -4.052290 1.497881 -0.847490
O 3.802320 -1.393998 0.200683
O -4.852274 -0.012944 0.624416
N -2.622968 -1.060175 1.242467
C -1.646854 -0.172503 -0.914012
C -2.485396 0.130542 0.331737
C -0.192210 -0.470371 -0.628420
C 0.700161 0.550107 -0.350442
C 0.298250 -1.790457 -0.628813
C 2.044007 0.270752 -0.070514
C 1.621155 -2.080347 -0.351965
C -3.938940 0.584964 -0.008066
C 2.531761 -1.057872 -0.062045
H -1.732993 0.709260 -1.552567
H -2.099535 -1.012242 -1.452538
H -2.014773 0.922634 0.917631
H 0.378579 1.583574 -0.347042
H -0.381515 -2.605747 -0.856947
H 1.986523 -3.100423 -0.355826
H -3.650359 -1.065983 1.440057
H -2.082730 -0.970550 2.102914
H 4.285473 -0.557057 0.378531
H -2.361961 -1.936422 0.786071
N 2.921365 1.376161 0.202240
O 2.480408 2.520477 0.180222
O 4.120952 1.142605 0.457421
