
  xtb     11152109233D
 xtb: 6.4.1 (afa7bdf)
 26 26  0     0  0            999 V2000
   -4.0523    1.4979   -0.8475 O   0  0  0  0  0  0  0  0  0  0  0  0
    3.8023   -1.3940    0.2007 O   0  0  0  0  0  0  0  0  0  0  0  0
   -4.8523   -0.0129    0.6244 O   0  0  0  0  0  0  0  0  0  0  0  0
   -2.6230   -1.0602    1.2425 N   0  0  0  0  0  0  0  0  0  0  0  0
   -1.6469   -0.1725   -0.9140 C   0  0  0  0  0  0  0  0  0  0  0  0
   -2.4854    0.1305    0.3317 C   0  0  0  0  0  0  0  0  0  0  0  0
   -0.1922   -0.4704   -0.6284 C   0  0  0  0  0  0  0  0  0  0  0  0
    0.7002    0.5501   -0.3504 C   0  0  0  0  0  0  0  0  0  0  0  0
    0.2983   -1.7905   -0.6288 C   0  0  0  0  0  0  0  0  0  0  0  0
    2.0440    0.2708   -0.0705 C   0  0  0  0  0  0  0  0  0  0  0  0
    1.6212   -2.0803   -0.3520 C   0  0  0  0  0  0  0  0  0  0  0  0
   -3.9389    0.5850   -0.0081 C   0  0  0  0  0  0  0  0  0  0  0  0
    2.5318   -1.0579   -0.0620 C   0  0  0  0  0  0  0  0  0  0  0  0
   -1.7330    0.7093   -1.5526 H   0  0  0  0  0  0  0  0  0  0  0  0
   -2.0995   -1.0122   -1.4525 H   0  0  0  0  0  0  0  0  0  0  0  0
   -2.0148    0.9226    0.9176 H   0  0  0  0  0  0  0  0  0  0  0  0
    0.3786    1.5836   -0.3470 H   0  0  0  0  0  0  0  0  0  0  0  0
   -0.3815   -2.6057   -0.8569 H   0  0  0  0  0  0  0  0  0  0  0  0
    1.9865   -3.1004   -0.3558 H   0  0  0  0  0  0  0  0  0  0  0  0
   -3.6504   -1.0660    1.4401 H   0  0  0  0  0  0  0  0  0  0  0  0
   -2.0827   -0.9706    2.1029 H   0  0  0  0  0  0  0  0  0  0  0  0
    4.2855   -0.5571    0.3785 H   0  0  0  0  0  0  0  0  0  0  0  0
   -2.3620   -1.9364    0.7861 H   0  0  0  0  0  0  0  0  0  0  0  0
    2.9214    1.3762    0.2022 N   0  0  0  0  0  0  0  0  0  0  0  0
    2.4804    2.5205    0.1802 O   0  0  0  0  0  0  0  0  0  0  0  0
    4.1210    1.1426    0.4574 O   0  0  0  0  0  0  0  0  0  0  0  0
  4  6  1  0  0  0  0
  5  6  1  0  0  0  0
  5  7  1  0  0  0  0
  7  8  4  0  0  0  0
  7  9  4  0  0  0  0
  8 10  4  0  0  0  0
  9 11  4  0  0  0  0
  1 12  2  0  0  0  0
  3 12  4  0  0  0  0
  6 12  1  0  0  0  0
  2 13  1  0  0  0  0
 10 13  4  0  0  0  0
 11 13  4  0  0  0  0
  5 14  1  0  0  0  0
  5 15  1  0  0  0  0
  6 16  1  0  0  0  0
  8 17  1  0  0  0  0
  9 18  1  0  0  0  0
 11 19  1  0  0  0  0
  4 20  1  0  0  0  0
  4 21  1  0  0  0  0
  2 22  1  0  0  0  0
  4 23  1  0  0  0  0
 10 24  1  0  0  0  0
 24 25  4  0  0  0  0
 24 26  4  0  0  0  0
M  END
