
  xtb     11152109233D
 xtb: 6.4.1 (afa7bdf)
 23 23  0     0  0            999 V2000
    1.3640    0.1973    0.3415 C   0  0  0  0  0  0  0  0  0  0  0  0
    0.2901   -0.7039    0.2527 C   0  0  0  0  0  0  0  0  0  0  0  0
   -1.0048   -0.2458    0.0444 C   0  0  0  0  0  0  0  0  0  0  0  0
   -1.2509    1.1342   -0.0819 C   0  0  0  0  0  0  0  0  0  0  0  0
   -0.1970    2.0287    0.0076 C   0  0  0  0  0  0  0  0  0  0  0  0
    1.1025    1.5606    0.2187 C   0  0  0  0  0  0  0  0  0  0  0  0
   -2.5295    1.5922   -0.2863 O   0  0  0  0  0  0  0  0  0  0  0  0
   -3.1096    0.8182   -0.3247 H   0  0  0  0  0  0  0  0  0  0  0  0
    0.4790   -1.7663    0.3527 H   0  0  0  0  0  0  0  0  0  0  0  0
   -2.1256   -1.0278   -0.0507 O   0  0  0  0  0  0  0  0  0  0  0  0
   -1.9677   -2.4401    0.0506 C   0  0  0  0  0  0  0  0  0  0  0  0
   -1.5566   -2.7235    1.0258 H   0  0  0  0  0  0  0  0  0  0  0  0
   -2.9669   -2.8636   -0.0596 H   0  0  0  0  0  0  0  0  0  0  0  0
   -1.3184   -2.8234   -0.7443 H   0  0  0  0  0  0  0  0  0  0  0  0
    1.9185    2.2729    0.2903 H   0  0  0  0  0  0  0  0  0  0  0  0
   -0.4025    3.0898   -0.0850 H   0  0  0  0  0  0  0  0  0  0  0  0
    2.7736   -0.3186    0.5280 C   0  0  0  0  0  0  0  0  0  0  0  0
    3.3845    0.4609    0.9961 H   0  0  0  0  0  0  0  0  0  0  0  0
    2.7644   -1.1710    1.2173 H   0  0  0  0  0  0  0  0  0  0  0  0
    3.4319   -0.7504   -0.7924 C   0  0  0  0  0  0  0  0  0  0  0  0
    3.4907    0.0889   -1.4935 H   0  0  0  0  0  0  0  0  0  0  0  0
    4.4482   -1.1202   -0.6199 H   0  0  0  0  0  0  0  0  0  0  0  0
    2.8588   -1.5494   -1.2748 H   0  0  0  0  0  0  0  0  0  0  0  0
  1  2  4  0  0  0  0
  2  3  4  0  0  0  0
  3  4  4  0  0  0  0
  4  5  4  0  0  0  0
  1  6  4  0  0  0  0
  5  6  4  0  0  0  0
  4  7  1  0  0  0  0
  7  8  1  0  0  0  0
  2  9  1  0  0  0  0
  3 10  1  0  0  0  0
 10 11  1  0  0  0  0
 11 12  1  0  0  0  0
 11 13  1  0  0  0  0
 11 14  1  0  0  0  0
  6 15  1  0  0  0  0
  5 16  1  0  0  0  0
  1 17  1  0  0  0  0
 17 18  1  0  0  0  0
 17 19  1  0  0  0  0
 17 20  1  0  0  0  0
 20 21  1  0  0  0  0
 20 22  1  0  0  0  0
 20 23  1  0  0  0  0
M  END
