
  xtb     11152109233D
 xtb: 6.4.1 (afa7bdf)
 18 18  0     0  0            999 V2000
    0.2665    1.6638    0.0044 C   0  0  0  0  0  0  0  0  0  0  0  0
    0.8274    0.3802    0.0003 C   0  0  0  0  0  0  0  0  0  0  0  0
    0.0141   -0.7511   -0.0056 C   0  0  0  0  0  0  0  0  0  0  0  0
   -1.3848   -0.6113   -0.0101 C   0  0  0  0  0  0  0  0  0  0  0  0
   -1.9476    0.6722   -0.0029 C   0  0  0  0  0  0  0  0  0  0  0  0
   -1.1171    1.7901    0.0034 C   0  0  0  0  0  0  0  0  0  0  0  0
    0.9195    2.5285    0.0108 H   0  0  0  0  0  0  0  0  0  0  0  0
    0.4395   -1.7469   -0.0063 H   0  0  0  0  0  0  0  0  0  0  0  0
   -3.0270    0.7835   -0.0019 H   0  0  0  0  0  0  0  0  0  0  0  0
   -1.5599    2.7813    0.0113 H   0  0  0  0  0  0  0  0  0  0  0  0
   -2.1944   -1.7431   -0.0807 N   0  0  0  0  0  0  0  0  0  0  0  0
   -1.7706   -2.5824    0.2927 H   0  0  0  0  0  0  0  0  0  0  0  0
   -3.1277   -1.6070    0.2849 H   0  0  0  0  0  0  0  0  0  0  0  0
    2.1963    0.3319    0.0067 O   0  0  0  0  0  0  0  0  0  0  0  0
    2.8243   -0.9459   -0.0012 C   0  0  0  0  0  0  0  0  0  0  0  0
    3.8984   -0.7528    0.0012 H   0  0  0  0  0  0  0  0  0  0  0  0
    2.5598   -1.5289    0.8884 H   0  0  0  0  0  0  0  0  0  0  0  0
    2.5617   -1.5167   -0.8993 H   0  0  0  0  0  0  0  0  0  0  0  0
  1  2  4  0  0  0  0
  2  3  4  0  0  0  0
  3  4  4  0  0  0  0
  4  5  4  0  0  0  0
  1  6  4  0  0  0  0
  5  6  4  0  0  0  0
  1  7  1  0  0  0  0
  3  8  1  0  0  0  0
  5  9  1  0  0  0  0
  6 10  1  0  0  0  0
  4 11  1  0  0  0  0
 11 12  1  0  0  0  0
 11 13  1  0  0  0  0
  2 14  1  0  0  0  0
 14 15  1  0  0  0  0
 15 16  1  0  0  0  0
 15 17  1  0  0  0  0
 15 18  1  0  0  0  0
M  END
