20
# (35) 1,3-dimethoxybenzene_0_1
C -1.352797 1.152936 -0.000000
C -1.050580 -0.208181 0.000000
C 0.280738 -0.648992 0.000000
C 1.312257 0.284523 0.000000
C 1.024549 1.657592 0.000000
C -0.297494 2.070624 0.000000
H 1.842839 2.368092 0.000000
H -0.523218 3.132081 -0.000000
O 2.638543 -0.045177 0.000000
C 2.984877 -1.427267 -0.000000
H 2.604793 -1.934337 -0.894047
H 4.075447 -1.463460 -0.000000
H 2.604793 -1.934337 0.894047
H -2.375880 1.502452 -0.000000
O -1.986411 -1.205394 0.000000
C -3.360726 -0.829531 0.000000
H -3.616592 -0.249880 -0.894031
H -3.926933 -1.762345 0.000000
H -3.616592 -0.249880 0.894031
H 0.469346 -1.714040 0.000000
