
  xtb     11152109233D
 xtb: 6.4.1 (afa7bdf)
 28 28  0     0  0            999 V2000
    0.2634   -1.0300   -0.7862 O   0  0  0  0  0  0  0  0  0  0  0  0
    1.7780    0.3895    1.2491 O   0  0  0  0  0  0  0  0  0  0  0  0
    4.1920    0.5054   -0.1303 O   0  0  0  0  0  0  0  0  0  0  0  0
   -0.3380    1.5249   -0.3780 O   0  0  0  0  0  0  0  0  0  0  0  0
    2.2582   -0.7806    0.5854 C   0  0  0  0  0  0  0  0  0  0  0  0
    1.1209   -1.7026    0.1582 C   0  0  0  0  0  0  0  0  0  0  0  0
    3.1666   -0.3757   -0.5765 C   0  0  0  0  0  0  0  0  0  0  0  0
   -1.0160   -0.7265   -0.3757 C   0  0  0  0  0  0  0  0  0  0  0  0
   -1.3563    0.6282   -0.1985 C   0  0  0  0  0  0  0  0  0  0  0  0
   -1.9747   -1.7141   -0.1905 C   0  0  0  0  0  0  0  0  0  0  0  0
   -2.6630    0.9693    0.1460 C   0  0  0  0  0  0  0  0  0  0  0  0
   -3.2799   -1.3717    0.1661 C   0  0  0  0  0  0  0  0  0  0  0  0
   -3.6185   -0.0331    0.3270 C   0  0  0  0  0  0  0  0  0  0  0  0
   -0.6221    2.9112   -0.1782 C   0  0  0  0  0  0  0  0  0  0  0  0
    2.8592   -1.3201    1.3271 H   0  0  0  0  0  0  0  0  0  0  0  0
    1.5267   -2.5949   -0.3303 H   0  0  0  0  0  0  0  0  0  0  0  0
    0.5399   -2.0127    1.0311 H   0  0  0  0  0  0  0  0  0  0  0  0
    2.5621    0.0949   -1.3655 H   0  0  0  0  0  0  0  0  0  0  0  0
    3.6554   -1.2582   -1.0010 H   0  0  0  0  0  0  0  0  0  0  0  0
   -1.6880   -2.7501   -0.3360 H   0  0  0  0  0  0  0  0  0  0  0  0
   -2.9396    2.0064    0.2838 H   0  0  0  0  0  0  0  0  0  0  0  0
    1.1638    0.8409    0.6431 H   0  0  0  0  0  0  0  0  0  0  0  0
   -4.0225   -2.1489    0.3072 H   0  0  0  0  0  0  0  0  0  0  0  0
   -4.6310    0.2462    0.5974 H   0  0  0  0  0  0  0  0  0  0  0  0
    3.7418    1.1543    0.4280 H   0  0  0  0  0  0  0  0  0  0  0  0
    0.3179    3.4347   -0.3559 H   0  0  0  0  0  0  0  0  0  0  0  0
   -0.9619    3.1024    0.8450 H   0  0  0  0  0  0  0  0  0  0  0  0
   -1.3771    3.2614   -0.8894 H   0  0  0  0  0  0  0  0  0  0  0  0
  2  5  1  0  0  0  0
  1  6  1  0  0  0  0
  5  6  1  0  0  0  0
  3  7  1  0  0  0  0
  5  7  1  0  0  0  0
  1  8  1  0  0  0  0
  4  9  1  0  0  0  0
  8  9  4  0  0  0  0
  8 10  4  0  0  0  0
  9 11  4  0  0  0  0
 10 12  4  0  0  0  0
 11 13  4  0  0  0  0
 12 13  4  0  0  0  0
  4 14  1  0  0  0  0
  5 15  1  0  0  0  0
  6 16  1  0  0  0  0
  6 17  1  0  0  0  0
  7 18  1  0  0  0  0
  7 19  1  0  0  0  0
 10 20  1  0  0  0  0
 11 21  1  0  0  0  0
  2 22  1  0  0  0  0
 12 23  1  0  0  0  0
 13 24  1  0  0  0  0
  3 25  1  0  0  0  0
 14 26  1  0  0  0  0
 14 27  1  0  0  0  0
 14 28  1  0  0  0  0
M  END
