
  xtb     11152109363D
 xtb: 6.4.1 (afa7bdf)
 20 20  0     0  0            999 V2000
   -0.5927   -1.3447    0.0124 C   0  0  0  0  0  0  0  0  0  0  0  0
    0.7879   -1.3222    0.0020 C   0  0  0  0  0  0  0  0  0  0  0  0
    1.4764   -0.1153   -0.0189 C   0  0  0  0  0  0  0  0  0  0  0  0
    0.7661    1.1231   -0.0297 C   0  0  0  0  0  0  0  0  0  0  0  0
   -0.6192    1.0855   -0.0245 C   0  0  0  0  0  0  0  0  0  0  0  0
   -1.2924   -0.1393   -0.0018 C   0  0  0  0  0  0  0  0  0  0  0  0
    1.3241   -2.2559    0.0094 H   0  0  0  0  0  0  0  0  0  0  0  0
   -1.1944    1.9972   -0.0344 H   0  0  0  0  0  0  0  0  0  0  0  0
    1.4638    2.2863    0.0059 N   0  0  0  0  0  0  0  0  0  0  0  0
    2.4501    2.2404   -0.1825 H   0  0  0  0  0  0  0  0  0  0  0  0
    0.9765    3.1426   -0.1873 H   0  0  0  0  0  0  0  0  0  0  0  0
   -2.6953   -0.1537    0.0021 N   0  0  0  0  0  0  0  0  0  0  0  0
   -3.2832   -1.2353    0.0212 O   0  0  0  0  0  0  0  0  0  0  0  0
   -3.3040    0.9157   -0.0148 O   0  0  0  0  0  0  0  0  0  0  0  0
   -1.1384   -2.2735    0.0291 H   0  0  0  0  0  0  0  0  0  0  0  0
    2.8201    0.0077   -0.0394 O   0  0  0  0  0  0  0  0  0  0  0  0
    3.6272   -1.1578   -0.0250 C   0  0  0  0  0  0  0  0  0  0  0  0
    3.4413   -1.7751   -0.9062 H   0  0  0  0  0  0  0  0  0  0  0  0
    4.6519   -0.7942   -0.0401 H   0  0  0  0  0  0  0  0  0  0  0  0
    3.4563   -1.7411    0.8817 H   0  0  0  0  0  0  0  0  0  0  0  0
  1  2  4  0  0  0  0
  2  3  4  0  0  0  0
  3  4  4  0  0  0  0
  4  5  4  0  0  0  0
  1  6  4  0  0  0  0
  5  6  4  0  0  0  0
  2  7  1  0  0  0  0
  5  8  1  0  0  0  0
  4  9  4  0  0  0  0
  9 10  1  0  0  0  0
  9 11  1  0  0  0  0
  6 12  1  0  0  0  0
 12 13  4  0  0  0  0
 12 14  4  0  0  0  0
  1 15  1  0  0  0  0
  3 16  1  0  0  0  0
 16 17  1  0  0  0  0
 17 18  1  0  0  0  0
 17 19  1  0  0  0  0
 17 20  1  0  0  0  0
M  END
