
  xtb     11152109363D
 xtb: 6.4.1 (afa7bdf)
 17 17  0     0  0            999 V2000
   -0.6797    1.1901   -0.0000 C   0  0  0  0  0  0  0  0  0  0  0  0
   -0.7600   -0.1967    0.0001 C   0  0  0  0  0  0  0  0  0  0  0  0
    0.4080   -0.9576    0.0001 C   0  0  0  0  0  0  0  0  0  0  0  0
    1.6478   -0.3399    0.0001 C   0  0  0  0  0  0  0  0  0  0  0  0
    1.7273    1.0520   -0.0000 C   0  0  0  0  0  0  0  0  0  0  0  0
    0.5671    1.7969   -0.0000 C   0  0  0  0  0  0  0  0  0  0  0  0
    2.6991    1.5182   -0.0001 H   0  0  0  0  0  0  0  0  0  0  0  0
    0.6273    2.8742   -0.0001 H   0  0  0  0  0  0  0  0  0  0  0  0
    2.8069   -1.0477    0.0001 O   0  0  0  0  0  0  0  0  0  0  0  0
    2.6265   -2.0001    0.0002 H   0  0  0  0  0  0  0  0  0  0  0  0
   -1.5666    1.8016   -0.0001 H   0  0  0  0  0  0  0  0  0  0  0  0
    0.3141   -2.0331    0.0002 H   0  0  0  0  0  0  0  0  0  0  0  0
   -1.9211   -0.9154    0.0001 O   0  0  0  0  0  0  0  0  0  0  0  0
   -3.1509   -0.2161   -0.0002 C   0  0  0  0  0  0  0  0  0  0  0  0
   -3.2527    0.4039   -0.8947 H   0  0  0  0  0  0  0  0  0  0  0  0
   -3.9178   -0.9874   -0.0002 H   0  0  0  0  0  0  0  0  0  0  0  0
   -3.2530    0.4043    0.8939 H   0  0  0  0  0  0  0  0  0  0  0  0
  1  2  4  0  0  0  0
  2  3  4  0  0  0  0
  3  4  4  0  0  0  0
  4  5  4  0  0  0  0
  1  6  4  0  0  0  0
  5  6  4  0  0  0  0
  5  7  1  0  0  0  0
  6  8  1  0  0  0  0
  4  9  1  0  0  0  0
  9 10  1  0  0  0  0
  1 11  1  0  0  0  0
  3 12  1  0  0  0  0
  2 13  1  0  0  0  0
 13 14  1  0  0  0  0
 14 15  1  0  0  0  0
 14 16  1  0  0  0  0
 14 17  1  0  0  0  0
M  END
