
  xtb     11152109233D
 xtb: 6.4.1 (afa7bdf)
 18 18  0     0  0            999 V2000
    0.9439    0.2854   -0.0004 C   0  0  0  0  0  0  0  0  0  0  0  0
    0.0694    1.3763    0.0003 C   0  0  0  0  0  0  0  0  0  0  0  0
   -1.3041    1.1812   -0.0043 C   0  0  0  0  0  0  0  0  0  0  0  0
   -1.8499   -0.1120   -0.0102 C   0  0  0  0  0  0  0  0  0  0  0  0
   -0.9658   -1.1950   -0.0059 C   0  0  0  0  0  0  0  0  0  0  0  0
    0.4172   -1.0062   -0.0023 C   0  0  0  0  0  0  0  0  0  0  0  0
    1.0656   -1.8730    0.0029 H   0  0  0  0  0  0  0  0  0  0  0  0
   -1.3631   -2.2058   -0.0051 H   0  0  0  0  0  0  0  0  0  0  0  0
   -3.2377   -0.3060   -0.0840 N   0  0  0  0  0  0  0  0  0  0  0  0
   -3.5371   -1.1866    0.3167 H   0  0  0  0  0  0  0  0  0  0  0  0
   -3.7660    0.4568    0.3218 H   0  0  0  0  0  0  0  0  0  0  0  0
    0.4831    2.3793    0.0079 H   0  0  0  0  0  0  0  0  0  0  0  0
   -1.9690    2.0399   -0.0021 H   0  0  0  0  0  0  0  0  0  0  0  0
    2.2876    0.5856    0.0045 O   0  0  0  0  0  0  0  0  0  0  0  0
    3.2024   -0.5026    0.0052 C   0  0  0  0  0  0  0  0  0  0  0  0
    4.2005   -0.0603    0.0073 H   0  0  0  0  0  0  0  0  0  0  0  0
    3.0836   -1.1287    0.8977 H   0  0  0  0  0  0  0  0  0  0  0  0
    3.0867   -1.1270   -0.8890 H   0  0  0  0  0  0  0  0  0  0  0  0
  1  2  4  0  0  0  0
  2  3  4  0  0  0  0
  3  4  4  0  0  0  0
  4  5  4  0  0  0  0
  1  6  4  0  0  0  0
  5  6  4  0  0  0  0
  6  7  1  0  0  0  0
  5  8  1  0  0  0  0
  4  9  1  0  0  0  0
  9 10  1  0  0  0  0
  9 11  1  0  0  0  0
  2 12  1  0  0  0  0
  3 13  1  0  0  0  0
  1 14  1  0  0  0  0
 14 15  1  0  0  0  0
 15 16  1  0  0  0  0
 15 17  1  0  0  0  0
 15 18  1  0  0  0  0
M  END
