
  xtb     11152109363D
 xtb: 6.4.1 (afa7bdf)
 17 17  0     0  0            999 V2000
   -1.3720   -1.6458    0.0000 C   0  0  0  0  0  0  0  0  0  0  0  0
   -0.0090   -1.3829   -0.0000 C   0  0  0  0  0  0  0  0  0  0  0  0
    0.4434   -0.0755   -0.0001 C   0  0  0  0  0  0  0  0  0  0  0  0
   -0.4832    0.9814   -0.0001 C   0  0  0  0  0  0  0  0  0  0  0  0
   -1.8395    0.7040   -0.0000 C   0  0  0  0  0  0  0  0  0  0  0  0
   -2.2835   -0.6086   -0.0000 C   0  0  0  0  0  0  0  0  0  0  0  0
   -2.5300    1.5321   -0.0000 H   0  0  0  0  0  0  0  0  0  0  0  0
   -3.3423   -0.8130    0.0000 H   0  0  0  0  0  0  0  0  0  0  0  0
   -0.0609    2.2755   -0.0001 O   0  0  0  0  0  0  0  0  0  0  0  0
    0.9102    2.2904   -0.0001 H   0  0  0  0  0  0  0  0  0  0  0  0
    0.6884   -2.2048   -0.0000 H   0  0  0  0  0  0  0  0  0  0  0  0
   -1.7115   -2.6696    0.0000 H   0  0  0  0  0  0  0  0  0  0  0  0
    1.7642    0.3159   -0.0001 O   0  0  0  0  0  0  0  0  0  0  0  0
    2.7607   -0.6848   -0.0001 C   0  0  0  0  0  0  0  0  0  0  0  0
    2.6924   -1.3095   -0.8943 H   0  0  0  0  0  0  0  0  0  0  0  0
    3.7062   -0.1470   -0.0001 H   0  0  0  0  0  0  0  0  0  0  0  0
    2.6923   -1.3096    0.8941 H   0  0  0  0  0  0  0  0  0  0  0  0
  1  2  4  0  0  0  0
  2  3  4  0  0  0  0
  3  4  4  0  0  0  0
  4  5  4  0  0  0  0
  1  6  4  0  0  0  0
  5  6  4  0  0  0  0
  5  7  1  0  0  0  0
  6  8  1  0  0  0  0
  4  9  1  0  0  0  0
  9 10  1  0  0  0  0
  2 11  1  0  0  0  0
  1 12  1  0  0  0  0
  3 13  1  0  0  0  0
 13 14  1  0  0  0  0
 14 15  1  0  0  0  0
 14 16  1  0  0  0  0
 14 17  1  0  0  0  0
M  END
