
  xtb     11152109363D
 xtb: 6.4.1 (afa7bdf)
 18 18  0     0  0            999 V2000
    0.9351    0.2703    0.0006 C   0  0  0  0  0  0  0  0  0  0  0  0
    0.0683    1.3619    0.0046 C   0  0  0  0  0  0  0  0  0  0  0  0
   -1.2961    1.1762    0.0151 C   0  0  0  0  0  0  0  0  0  0  0  0
   -1.8438   -0.1102    0.0205 C   0  0  0  0  0  0  0  0  0  0  0  0
   -0.9679   -1.1940    0.0159 C   0  0  0  0  0  0  0  0  0  0  0  0
    0.4039   -1.0118    0.0050 C   0  0  0  0  0  0  0  0  0  0  0  0
    1.0438   -1.8798    0.0026 H   0  0  0  0  0  0  0  0  0  0  0  0
   -1.3660   -2.1981    0.0185 H   0  0  0  0  0  0  0  0  0  0  0  0
   -3.2098   -0.2984   -0.0440 N   0  0  0  0  0  0  0  0  0  0  0  0
   -3.5421   -1.1986    0.2604 H   0  0  0  0  0  0  0  0  0  0  0  0
   -3.7719    0.4799    0.2590 H   0  0  0  0  0  0  0  0  0  0  0  0
    0.4940    2.3533    0.0022 H   0  0  0  0  0  0  0  0  0  0  0  0
   -1.9524    2.0336    0.0172 H   0  0  0  0  0  0  0  0  0  0  0  0
    2.2796    0.5720   -0.0045 O   0  0  0  0  0  0  0  0  0  0  0  0
    3.2027   -0.4958   -0.0033 C   0  0  0  0  0  0  0  0  0  0  0  0
    4.1845   -0.0270   -0.0043 H   0  0  0  0  0  0  0  0  0  0  0  0
    3.0930   -1.1147    0.8922 H   0  0  0  0  0  0  0  0  0  0  0  0
    3.0924   -1.1175   -0.8967 H   0  0  0  0  0  0  0  0  0  0  0  0
  1  2  4  0  0  0  0
  2  3  4  0  0  0  0
  3  4  4  0  0  0  0
  4  5  4  0  0  0  0
  1  6  4  0  0  0  0
  5  6  4  0  0  0  0
  6  7  1  0  0  0  0
  5  8  1  0  0  0  0
  4  9  1  0  0  0  0
  9 10  1  0  0  0  0
  9 11  1  0  0  0  0
  2 12  1  0  0  0  0
  3 13  1  0  0  0  0
  1 14  1  0  0  0  0
 14 15  1  0  0  0  0
 15 16  1  0  0  0  0
 15 17  1  0  0  0  0
 15 18  1  0  0  0  0
M  END
