
  xtb     11152109363D
 xtb: 6.4.1 (afa7bdf)
 18 18  0     0  0            999 V2000
    0.6649    0.0560    0.0000 C   0  0  0  0  0  0  0  0  0  0  0  0
   -0.1072    1.2219   -0.0000 C   0  0  0  0  0  0  0  0  0  0  0  0
   -1.4829    1.1697   -0.0000 C   0  0  0  0  0  0  0  0  0  0  0  0
   -2.1301   -0.0656   -0.0000 C   0  0  0  0  0  0  0  0  0  0  0  0
   -1.3687   -1.2371    0.0001 C   0  0  0  0  0  0  0  0  0  0  0  0
    0.0061   -1.1779    0.0001 C   0  0  0  0  0  0  0  0  0  0  0  0
   -3.4719   -0.1834   -0.0000 O   0  0  0  0  0  0  0  0  0  0  0  0
   -3.9044    0.6854   -0.0001 H   0  0  0  0  0  0  0  0  0  0  0  0
    0.4083    2.1711   -0.0001 H   0  0  0  0  0  0  0  0  0  0  0  0
   -2.0577    2.0841   -0.0001 H   0  0  0  0  0  0  0  0  0  0  0  0
   -1.8866   -2.1830    0.0001 H   0  0  0  0  0  0  0  0  0  0  0  0
    2.1309    0.1906   -0.0001 C   0  0  0  0  0  0  0  0  0  0  0  0
    2.6694    1.2918    0.0001 O   0  0  0  0  0  0  0  0  0  0  0  0
    2.9497   -1.0716   -0.0001 C   0  0  0  0  0  0  0  0  0  0  0  0
    2.7208   -1.6608    0.8840 H   0  0  0  0  0  0  0  0  0  0  0  0
    2.7202   -1.6612   -0.8837 H   0  0  0  0  0  0  0  0  0  0  0  0
    4.0055   -0.8131   -0.0004 H   0  0  0  0  0  0  0  0  0  0  0  0
    0.5654   -2.0985    0.0001 H   0  0  0  0  0  0  0  0  0  0  0  0
  1  2  4  0  0  0  0
  2  3  4  0  0  0  0
  3  4  4  0  0  0  0
  4  5  4  0  0  0  0
  1  6  4  0  0  0  0
  5  6  4  0  0  0  0
  4  7  1  0  0  0  0
  7  8  1  0  0  0  0
  2  9  1  0  0  0  0
  3 10  1  0  0  0  0
  5 11  1  0  0  0  0
  1 12  1  0  0  0  0
 12 13  2  0  0  0  0
 12 14  1  0  0  0  0
 14 15  1  0  0  0  0
 14 16  1  0  0  0  0
 14 17  1  0  0  0  0
  6 18  1  0  0  0  0
M  END
