23
# (17) 2-phenylphenol_0_1
C -2.709263 -1.499954 -0.392794
C -3.474518 -0.370631 -0.104556
C -2.850853 0.829810 0.213860
C -1.458222 0.915543 0.237761
C -0.663463 -0.208512 -0.063040
C -1.321866 -1.408892 -0.366016
H -0.719807 -2.279971 -0.603109
O -0.928280 2.130997 0.590435
H 0.033885 2.056652 0.652250
H -4.558007 -0.422350 -0.122935
H -3.427218 1.715845 0.456934
H -3.187347 -2.440760 -0.641468
C 0.821561 -0.153048 -0.045612
C 1.556750 -1.139628 0.629544
C 1.528277 0.858217 -0.717086
C 2.947776 -1.115684 0.635296
H 1.028180 -1.923255 1.161806
C 2.921732 0.883311 -0.706502
H 0.986621 1.614462 -1.276249
C 3.636635 -0.102078 -0.030330
H 3.495223 -1.887640 1.166066
H 3.446288 1.670860 -1.237232
H 4.721146 -0.082553 -0.022685
