
  xtb     11152109233D
 xtb: 6.4.1 (afa7bdf)
 13 13  0     0  0            999 V2000
   -1.6114   -0.0486    0.0000 C   0  0  0  0  0  0  0  0  0  0  0  0
   -0.8981   -1.2400    0.0000 C   0  0  0  0  0  0  0  0  0  0  0  0
    0.4886   -1.1752    0.0000 C   0  0  0  0  0  0  0  0  0  0  0  0
    1.1864    0.0403    0.0000 C   0  0  0  0  0  0  0  0  0  0  0  0
    0.4180    1.2123    0.0000 C   0  0  0  0  0  0  0  0  0  0  0  0
   -0.9697    1.1839    0.0000 C   0  0  0  0  0  0  0  0  0  0  0  0
   -1.4022   -2.1971    0.0000 H   0  0  0  0  0  0  0  0  0  0  0  0
   -1.5323    2.1079    0.0000 H   0  0  0  0  0  0  0  0  0  0  0  0
    2.5312    0.1350    0.0000 O   0  0  0  0  0  0  0  0  0  0  0  0
    2.9228   -0.7512    0.0000 H   0  0  0  0  0  0  0  0  0  0  0  0
    1.4221   -2.6574    0.0000 Cl  0  0  0  0  0  0  0  0  0  0  0  0
   -3.3631   -0.0997    0.0000 Cl  0  0  0  0  0  0  0  0  0  0  0  0
    1.2397    2.7526    0.0000 Cl  0  0  0  0  0  0  0  0  0  0  0  0
  1  2  4  0  0  0  0
  2  3  4  0  0  0  0
  3  4  4  0  0  0  0
  4  5  4  0  0  0  0
  1  6  4  0  0  0  0
  5  6  4  0  0  0  0
  2  7  1  0  0  0  0
  6  8  1  0  0  0  0
  4  9  1  0  0  0  0
  9 10  1  0  0  0  0
  3 11  1  0  0  0  0
  1 12  1  0  0  0  0
  5 13  1  0  0  0  0
M  END
