
  xtb     11152109363D
 xtb: 6.4.1 (afa7bdf)
 14 14  0     0  0            999 V2000
   -0.9610    0.0000   -0.0088 C   0  0  0  0  0  0  0  0  0  0  0  0
   -0.2771    1.2040   -0.0001 C   0  0  0  0  0  0  0  0  0  0  0  0
    1.1022    1.2017    0.0187 C   0  0  0  0  0  0  0  0  0  0  0  0
    1.8212   -0.0000    0.0272 C   0  0  0  0  0  0  0  0  0  0  0  0
    1.1022   -1.2017    0.0187 C   0  0  0  0  0  0  0  0  0  0  0  0
   -0.2772   -1.2040   -0.0001 C   0  0  0  0  0  0  0  0  0  0  0  0
   -0.8224    2.1346   -0.0054 H   0  0  0  0  0  0  0  0  0  0  0  0
    1.6355    2.1399    0.0249 H   0  0  0  0  0  0  0  0  0  0  0  0
    1.6355   -2.1399    0.0249 H   0  0  0  0  0  0  0  0  0  0  0  0
   -0.8225   -2.1346   -0.0054 H   0  0  0  0  0  0  0  0  0  0  0  0
    3.1859    0.0000   -0.0166 N   0  0  0  0  0  0  0  0  0  0  0  0
    3.6593    0.8552    0.2168 H   0  0  0  0  0  0  0  0  0  0  0  0
    3.6593   -0.8552    0.2168 H   0  0  0  0  0  0  0  0  0  0  0  0
   -2.7102    0.0000   -0.0290 Cl  0  0  0  0  0  0  0  0  0  0  0  0
  1  2  4  0  0  0  0
  2  3  4  0  0  0  0
  3  4  4  0  0  0  0
  4  5  4  0  0  0  0
  1  6  4  0  0  0  0
  5  6  4  0  0  0  0
  2  7  1  0  0  0  0
  3  8  1  0  0  0  0
  5  9  1  0  0  0  0
  6 10  1  0  0  0  0
  4 11  4  0  0  0  0
 11 12  1  0  0  0  0
 11 13  1  0  0  0  0
  1 14  1  0  0  0  0
M  END
