
  xtb     11152109363D
 xtb: 6.4.1 (afa7bdf)
 23 23  0     0  0            999 V2000
    1.3642    0.1931    0.3494 C   0  0  0  0  0  0  0  0  0  0  0  0
    0.3016   -0.7021    0.2575 C   0  0  0  0  0  0  0  0  0  0  0  0
   -0.9870   -0.2509    0.0409 C   0  0  0  0  0  0  0  0  0  0  0  0
   -1.2302    1.1262   -0.0884 C   0  0  0  0  0  0  0  0  0  0  0  0
   -0.1720    2.0133   -0.0026 C   0  0  0  0  0  0  0  0  0  0  0  0
    1.1147    1.5483    0.2131 C   0  0  0  0  0  0  0  0  0  0  0  0
   -2.4934    1.5964   -0.2949 O   0  0  0  0  0  0  0  0  0  0  0  0
   -3.1061    0.8442   -0.3256 H   0  0  0  0  0  0  0  0  0  0  0  0
    0.5001   -1.7573    0.3612 H   0  0  0  0  0  0  0  0  0  0  0  0
   -2.1073   -1.0476   -0.0628 O   0  0  0  0  0  0  0  0  0  0  0  0
   -1.9477   -2.4461    0.0497 C   0  0  0  0  0  0  0  0  0  0  0  0
   -1.5444   -2.7196    1.0282 H   0  0  0  0  0  0  0  0  0  0  0  0
   -2.9477   -2.8591   -0.0628 H   0  0  0  0  0  0  0  0  0  0  0  0
   -1.2987   -2.8334   -0.7401 H   0  0  0  0  0  0  0  0  0  0  0  0
    1.9285    2.2541    0.2784 H   0  0  0  0  0  0  0  0  0  0  0  0
   -0.3776    3.0669   -0.1055 H   0  0  0  0  0  0  0  0  0  0  0  0
    2.7618   -0.3235    0.5474 C   0  0  0  0  0  0  0  0  0  0  0  0
    3.3760    0.4519    1.0075 H   0  0  0  0  0  0  0  0  0  0  0  0
    2.7455   -1.1873    1.2145 H   0  0  0  0  0  0  0  0  0  0  0  0
    3.3850   -0.7321   -0.7896 C   0  0  0  0  0  0  0  0  0  0  0  0
    3.4207    0.1203   -1.4638 H   0  0  0  0  0  0  0  0  0  0  0  0
    4.3963   -1.1013   -0.6392 H   0  0  0  0  0  0  0  0  0  0  0  0
    2.7944   -1.5146   -1.2599 H   0  0  0  0  0  0  0  0  0  0  0  0
  1  2  4  0  0  0  0
  2  3  4  0  0  0  0
  3  4  4  0  0  0  0
  4  5  4  0  0  0  0
  1  6  4  0  0  0  0
  5  6  4  0  0  0  0
  4  7  1  0  0  0  0
  7  8  1  0  0  0  0
  2  9  1  0  0  0  0
  3 10  1  0  0  0  0
 10 11  1  0  0  0  0
 11 12  1  0  0  0  0
 11 13  1  0  0  0  0
 11 14  1  0  0  0  0
  6 15  1  0  0  0  0
  5 16  1  0  0  0  0
  1 17  1  0  0  0  0
 17 18  1  0  0  0  0
 17 19  1  0  0  0  0
 17 20  1  0  0  0  0
 20 21  1  0  0  0  0
 20 22  1  0  0  0  0
 20 23  1  0  0  0  0
M  END
