
  xtb     11152109363D
 xtb: 6.4.1 (afa7bdf)
 19 19  0     0  0            999 V2000
    1.4162   -0.1895    0.0001 C   0  0  0  0  0  0  0  0  0  0  0  0
    0.1993   -0.8872    0.0001 C   0  0  0  0  0  0  0  0  0  0  0  0
   -0.9929   -0.1976   -0.0000 C   0  0  0  0  0  0  0  0  0  0  0  0
   -0.9853    1.2170   -0.0000 C   0  0  0  0  0  0  0  0  0  0  0  0
    0.2249    1.9012   -0.0000 C   0  0  0  0  0  0  0  0  0  0  0  0
    1.4150    1.2067    0.0000 C   0  0  0  0  0  0  0  0  0  0  0  0
   -2.1381    1.9070   -0.0000 O   0  0  0  0  0  0  0  0  0  0  0  0
   -2.8928    1.2920   -0.0001 H   0  0  0  0  0  0  0  0  0  0  0  0
    0.2187   -1.9651    0.0001 H   0  0  0  0  0  0  0  0  0  0  0  0
   -2.2414   -0.7560   -0.0000 O   0  0  0  0  0  0  0  0  0  0  0  0
   -2.3500   -2.1672   -0.0004 C   0  0  0  0  0  0  0  0  0  0  0  0
   -1.8922   -2.5955    0.8941 H   0  0  0  0  0  0  0  0  0  0  0  0
   -3.4179   -2.3714   -0.0005 H   0  0  0  0  0  0  0  0  0  0  0  0
   -1.8920   -2.5951   -0.8949 H   0  0  0  0  0  0  0  0  0  0  0  0
    2.3618    1.7232    0.0000 H   0  0  0  0  0  0  0  0  0  0  0  0
    0.2016    2.9784   -0.0000 H   0  0  0  0  0  0  0  0  0  0  0  0
    2.6656   -0.9232    0.0002 C   0  0  0  0  0  0  0  0  0  0  0  0
    3.7814   -0.4342   -0.0000 O   0  0  0  0  0  0  0  0  0  0  0  0
    2.5523   -2.0238    0.0002 H   0  0  0  0  0  0  0  0  0  0  0  0
  1  2  4  0  0  0  0
  2  3  4  0  0  0  0
  3  4  4  0  0  0  0
  4  5  4  0  0  0  0
  1  6  4  0  0  0  0
  5  6  4  0  0  0  0
  4  7  1  0  0  0  0
  7  8  1  0  0  0  0
  2  9  1  0  0  0  0
  3 10  1  0  0  0  0
 10 11  1  0  0  0  0
 11 12  1  0  0  0  0
 11 13  1  0  0  0  0
 11 14  1  0  0  0  0
  6 15  1  0  0  0  0
  5 16  1  0  0  0  0
  1 17  1  0  0  0  0
 17 18  2  0  0  0  0
 17 19  1  0  0  0  0
M  END
