
  xtb     11152109233D
 xtb: 6.4.1 (afa7bdf)
 19 19  0     0  0            999 V2000
    1.4201   -0.1826    0.0002 C   0  0  0  0  0  0  0  0  0  0  0  0
    0.2017   -0.8870    0.0001 C   0  0  0  0  0  0  0  0  0  0  0  0
   -0.9967   -0.1949    0.0003 C   0  0  0  0  0  0  0  0  0  0  0  0
   -0.9844    1.2175    0.0000 C   0  0  0  0  0  0  0  0  0  0  0  0
    0.2228    1.9133    0.0000 C   0  0  0  0  0  0  0  0  0  0  0  0
    1.4216    1.2175    0.0001 C   0  0  0  0  0  0  0  0  0  0  0  0
   -2.1514    1.9089   -0.0003 O   0  0  0  0  0  0  0  0  0  0  0  0
   -2.8817    1.2711   -0.0006 H   0  0  0  0  0  0  0  0  0  0  0  0
    0.2167   -1.9705    0.0001 H   0  0  0  0  0  0  0  0  0  0  0  0
   -2.2457   -0.7431    0.0005 O   0  0  0  0  0  0  0  0  0  0  0  0
   -2.3527   -2.1662   -0.0004 C   0  0  0  0  0  0  0  0  0  0  0  0
   -1.8891   -2.5953    0.8945 H   0  0  0  0  0  0  0  0  0  0  0  0
   -3.4206   -2.3866   -0.0005 H   0  0  0  0  0  0  0  0  0  0  0  0
   -1.8890   -2.5942   -0.8956 H   0  0  0  0  0  0  0  0  0  0  0  0
    2.3661    1.7488    0.0002 H   0  0  0  0  0  0  0  0  0  0  0  0
    0.1959    2.9971   -0.0001 H   0  0  0  0  0  0  0  0  0  0  0  0
    2.6690   -0.9406    0.0001 C   0  0  0  0  0  0  0  0  0  0  0  0
    3.7914   -0.4522   -0.0004 O   0  0  0  0  0  0  0  0  0  0  0  0
    2.5405   -2.0414    0.0002 H   0  0  0  0  0  0  0  0  0  0  0  0
  1  2  4  0  0  0  0
  2  3  4  0  0  0  0
  3  4  4  0  0  0  0
  4  5  4  0  0  0  0
  1  6  4  0  0  0  0
  5  6  4  0  0  0  0
  4  7  1  0  0  0  0
  7  8  1  0  0  0  0
  2  9  1  0  0  0  0
  3 10  1  0  0  0  0
 10 11  1  0  0  0  0
 11 12  1  0  0  0  0
 11 13  1  0  0  0  0
 11 14  1  0  0  0  0
  6 15  1  0  0  0  0
  5 16  1  0  0  0  0
  1 17  1  0  0  0  0
 17 18  2  0  0  0  0
 17 19  1  0  0  0  0
M  END
