20
# (20) 2-methoxy-5-nitroaniline_0_1
C -0.590833 -1.351490 0.006620
C 0.798929 -1.323687 0.008031
C 1.479927 -0.107161 0.011718
C 0.772057 1.127024 0.012917
C -0.615073 1.089146 0.002472
C -1.276885 -0.142521 0.003225
H 1.348623 -2.255034 0.006264
H -1.181879 2.010560 -0.006648
N 1.482084 2.314918 0.077812
H 2.419592 2.257903 -0.295828
H 0.977486 3.121771 -0.264188
N -2.722565 -0.155278 -0.004346
O -3.309081 -1.241711 -0.010007
O -3.325040 0.922226 -0.004981
H -1.127668 -2.289046 0.006246
O 2.825972 0.020822 0.011178
C 3.627437 -1.162877 -0.019648
H 3.427420 -1.747397 -0.923268
H 4.662038 -0.819183 -0.026184
H 3.449592 -1.778357 0.867814
