
  xtb     11152109363D
 xtb: 6.4.1 (afa7bdf)
 16 15  0     0  0            999 V2000
    0.0862   -0.2639    0.0000 N   0  0  0  0  0  0  0  0  0  0  0  0
   -0.6402   -0.9756    0.0000 H   0  0  0  0  0  0  0  0  0  0  0  0
   -0.0247    0.5275    1.2121 C   0  0  0  0  0  0  0  0  0  0  0  0
    0.8250    1.2182    1.2296 H   0  0  0  0  0  0  0  0  0  0  0  0
   -0.9474    1.1395    1.2227 H   0  0  0  0  0  0  0  0  0  0  0  0
    0.0110   -0.3665    2.4432 C   0  0  0  0  0  0  0  0  0  0  0  0
    0.9128   -0.9714    2.4340 H   0  0  0  0  0  0  0  0  0  0  0  0
   -0.0010    0.2392    3.3448 H   0  0  0  0  0  0  0  0  0  0  0  0
   -0.8515   -1.0292    2.4575 H   0  0  0  0  0  0  0  0  0  0  0  0
   -0.0247    0.5275   -1.2121 C   0  0  0  0  0  0  0  0  0  0  0  0
    0.8250    1.2181   -1.2296 H   0  0  0  0  0  0  0  0  0  0  0  0
   -0.9474    1.1395   -1.2227 H   0  0  0  0  0  0  0  0  0  0  0  0
    0.0110   -0.3666   -2.4432 C   0  0  0  0  0  0  0  0  0  0  0  0
   -0.8515   -1.0292   -2.4575 H   0  0  0  0  0  0  0  0  0  0  0  0
   -0.0010    0.2392   -3.3448 H   0  0  0  0  0  0  0  0  0  0  0  0
    0.9128   -0.9714   -2.4340 H   0  0  0  0  0  0  0  0  0  0  0  0
  1  2  1  0  0  0  0
  1  3  1  0  0  0  0
  3  4  1  0  0  0  0
  3  5  1  0  0  0  0
  3  6  1  0  0  0  0
  6  7  1  0  0  0  0
  6  8  1  0  0  0  0
  6  9  1  0  0  0  0
  1 10  1  0  0  0  0
 10 11  1  0  0  0  0
 10 12  1  0  0  0  0
 10 13  1  0  0  0  0
 13 14  1  0  0  0  0
 13 15  1  0  0  0  0
 13 16  1  0  0  0  0
M  END
