
  xtb     11152109363D
 xtb: 6.4.1 (afa7bdf)
 13 13  0     0  0            999 V2000
    0.5538    1.4078   -0.0002 C   0  0  0  0  0  0  0  0  0  0  0  0
   -0.7716    1.8085    0.0001 C   0  0  0  0  0  0  0  0  0  0  0  0
   -1.7953    0.8789    0.0005 C   0  0  0  0  0  0  0  0  0  0  0  0
   -1.5002   -0.4812    0.0005 C   0  0  0  0  0  0  0  0  0  0  0  0
   -0.1698   -0.8974    0.0002 C   0  0  0  0  0  0  0  0  0  0  0  0
    0.8328    0.0516   -0.0002 C   0  0  0  0  0  0  0  0  0  0  0  0
   -2.4566   -1.4370    0.0008 O   0  0  0  0  0  0  0  0  0  0  0  0
   -3.3424   -1.0411    0.0011 H   0  0  0  0  0  0  0  0  0  0  0  0
   -1.0066    2.8609    0.0001 H   0  0  0  0  0  0  0  0  0  0  0  0
   -2.8228    1.2096    0.0006 H   0  0  0  0  0  0  0  0  0  0  0  0
    1.3542    2.1286   -0.0003 H   0  0  0  0  0  0  0  0  0  0  0  0
    0.0520   -1.9519    0.0003 H   0  0  0  0  0  0  0  0  0  0  0  0
    2.4906   -0.4794   -0.0002 Cl  0  0  0  0  0  0  0  0  0  0  0  0
  1  2  4  0  0  0  0
  2  3  4  0  0  0  0
  3  4  4  0  0  0  0
  4  5  4  0  0  0  0
  1  6  4  0  0  0  0
  5  6  4  0  0  0  0
  4  7  1  0  0  0  0
  7  8  1  0  0  0  0
  2  9  1  0  0  0  0
  3 10  1  0  0  0  0
  1 11  1  0  0  0  0
  5 12  1  0  0  0  0
  6 13  1  0  0  0  0
M  END
