18
# (04) 3-hydroxy-acetophenone_0_1
C 0.113575 1.543719 0.000021
C -1.247159 1.825462 0.000035
C -2.184128 0.795910 0.000013
C -1.752307 -0.532032 0.000020
C -0.389397 -0.825090 -0.000003
C 0.550489 0.212660 0.000009
O -2.711365 -1.508817 -0.000051
H -2.286229 -2.376731 -0.000056
H -1.588024 2.855172 0.000033
H -3.248180 1.005035 0.000018
H -0.077167 -1.863574 -0.000019
H 0.846280 2.340880 -0.000006
C 2.018795 -0.062341 -0.000004
O 2.824179 0.861107 -0.000085
C 2.494683 -1.494466 0.000062
H 3.585143 -1.512500 0.000272
H 2.119017 -2.024810 0.881219
H 2.119353 -2.024725 -0.881291
