24
# (11) triclosan_0_1
C -2.181262 -1.713238 0.291873
C -3.391279 -1.053940 0.118950
C -3.451117 0.330058 0.004186
C -2.267079 1.053149 0.061235
C -1.032558 0.414587 0.231900
C -1.004697 -0.973648 0.350078
H -4.395372 0.841306 -0.129521
H -0.058599 -1.480236 0.494715
H -2.148567 -2.791435 0.384523
O 0.077576 1.212280 0.303546
Cl -4.881519 -1.979555 0.043391
Cl -2.324530 2.794739 -0.083487
C 1.341730 0.637330 0.254045
C 1.840946 0.155317 -0.964986
C 2.132830 0.641756 1.391595
C 3.145497 -0.334272 -1.018455
C 3.440424 0.162013 1.346811
H 1.718327 1.031161 2.314133
C 3.919640 -0.321616 0.136249
H 3.538687 -0.709809 -1.956134
H 4.062469 0.164335 2.232078
O 1.018155 0.191452 -2.045106
H 1.475922 -0.179882 -2.811537
Cl 5.563863 -0.938142 0.050880
