13
# (13) 2,4,6-trichlorophenol_0_1
C -1.611359 -0.048557 0.000000
C -0.898058 -1.239996 0.000000
C 0.488604 -1.175241 0.000000
C 1.186351 0.040255 0.000000
C 0.417963 1.212289 0.000000
C -0.969706 1.183922 0.000000
H -1.402200 -2.197059 0.000000
H -1.532316 2.107884 0.000000
O 2.531220 0.135014 0.000000
H 2.922793 -0.751235 0.000000
Cl 1.422147 -2.657365 0.000000
Cl -3.363116 -0.099693 0.000000
Cl 1.239746 2.752603 0.000000
