14
# (19) 4-cyanophenol_0_1
C -1.078508 -0.001639 -0.000130
C -0.365784 -1.211043 0.000036
C 1.018792 -1.201765 -0.000075
C 1.706749 0.017623 -0.000329
C 1.002035 1.227464 -0.000117
C -0.381129 1.217985 0.000078
O 3.062290 0.085583 0.000311
H 3.433277 -0.807375 -0.000126
H -0.903724 -2.151705 0.000121
H 1.577595 -2.131781 0.000077
H 1.553333 2.160327 -0.000045
H -0.931864 2.151194 0.000126
C -2.500552 -0.010959 -0.000136
N -3.662366 -0.018760 0.000199
