17
# (26) 4-methylaniline_0_1
C 1.399393 0.000968 -0.010998
C 0.670629 -1.193692 -0.008615
C -0.719871 -1.201950 0.003743
C -1.442701 0.000166 0.013469
C -0.720965 1.202150 0.003635
C 0.670283 1.194501 -0.008578
H 1.201750 2.142265 -0.021845
H -1.260716 2.144853 -0.000464
N -2.838336 -0.000913 0.088410
H -3.267050 0.831850 -0.295406
H -3.265817 -0.833775 -0.296566
H -1.259390 -2.144801 -0.000161
H 1.202499 -2.141308 -0.021938
C 2.908010 -0.000284 0.004095
H 3.311424 0.922529 -0.423902
H 3.303526 -0.082660 1.024955
H 3.313453 -0.843713 -0.564046
