24
# (30) diphenylamine_0_1
C -3.652071 -0.709753 0.344248
C -2.358782 -1.214143 0.377296
C -1.265563 -0.420788 -0.015354
C -1.515169 0.889462 -0.455026
C -2.816142 1.386535 -0.472287
C -3.894038 0.600131 -0.072076
H -4.476193 -1.344983 0.653008
H -2.176686 -2.231957 0.709146
H -0.703197 1.510867 -0.808379
H -2.983423 2.402004 -0.817432
H -4.903154 0.996101 -0.089392
N -0.000016 -1.003603 0.000502
H -0.000007 -2.013369 0.000216
C 1.265561 -0.420823 0.015737
C 1.515355 0.889372 0.455488
C 2.358583 -1.214177 -0.377403
C 2.816326 1.386432 0.472265
H 0.703502 1.510690 0.809269
C 3.651901 -0.709792 -0.344833
H 2.176359 -2.231957 -0.709285
C 3.894046 0.600037 0.071517
H 2.983807 2.401853 0.817451
H 4.475898 -1.344991 -0.653991
H 4.903169 0.996011 0.088443
