28
# (37) 3,2-methoxy-phenoxyl-1,2-propanediol_0_1
O 0.263359 -1.030029 -0.786232
O 1.777958 0.389471 1.249072
O 4.192047 0.505402 -0.130348
O -0.338016 1.524873 -0.377989
C 2.258178 -0.780564 0.585406
C 1.120856 -1.702641 0.158160
C 3.166573 -0.375651 -0.576457
C -1.015981 -0.726545 -0.375685
C -1.356340 0.628152 -0.198505
C -1.974742 -1.714055 -0.190499
C -2.662974 0.969284 0.145956
C -3.279875 -1.371677 0.166101
C -3.618490 -0.033123 0.327009
C -0.622110 2.911152 -0.178242
H 2.859162 -1.320067 1.327088
H 1.526729 -2.594941 -0.330279
H 0.539880 -2.012664 1.031139
H 2.562122 0.094862 -1.365528
H 3.655421 -1.258194 -1.000991
H -1.687989 -2.750095 -0.336035
H -2.939554 2.006356 0.283753
H 1.163764 0.840883 0.643105
H -4.022495 -2.148865 0.307209
H -4.631011 0.246233 0.597352
H 3.741757 1.154293 0.427984
H 0.317860 3.434656 -0.355890
H -0.961872 3.102427 0.844966
H -1.377123 3.261396 -0.889359
