
  xtb     11152109233D
 xtb: 6.4.1 (afa7bdf)
 33 34  0     0  0            999 V2000
    1.2570    0.5822    0.0003 C   0  0  0  0  0  0  0  0  0  0  0  0
    1.4211   -0.3940    0.9942 C   0  0  0  0  0  0  0  0  0  0  0  0
    2.5518   -1.1992    1.0547 C   0  0  0  0  0  0  0  0  0  0  0  0
    3.5628   -1.0463    0.1034 C   0  0  0  0  0  0  0  0  0  0  0  0
    3.4239   -0.0884   -0.8968 C   0  0  0  0  0  0  0  0  0  0  0  0
    2.2833    0.7127   -0.9400 C   0  0  0  0  0  0  0  0  0  0  0  0
    2.6550   -1.9484    1.8343 H   0  0  0  0  0  0  0  0  0  0  0  0
    2.2093    1.4483   -1.7317 H   0  0  0  0  0  0  0  0  0  0  0  0
    0.6428   -0.5357    1.7375 H   0  0  0  0  0  0  0  0  0  0  0  0
    4.2090    0.0257   -1.6366 H   0  0  0  0  0  0  0  0  0  0  0  0
   -0.0006    1.4702    0.0103 C   0  0  0  0  0  0  0  0  0  0  0  0
   -1.2553    0.5785    0.0017 C   0  0  0  0  0  0  0  0  0  0  0  0
   -2.2858    0.6926    0.9378 C   0  0  0  0  0  0  0  0  0  0  0  0
   -1.4116   -0.3846   -1.0077 C   0  0  0  0  0  0  0  0  0  0  0  0
   -3.4239   -0.1134    0.8767 C   0  0  0  0  0  0  0  0  0  0  0  0
   -2.2196    1.4169    1.7405 H   0  0  0  0  0  0  0  0  0  0  0  0
   -2.5372   -1.1931   -1.0855 C   0  0  0  0  0  0  0  0  0  0  0  0
   -0.6288   -0.5117   -1.7489 H   0  0  0  0  0  0  0  0  0  0  0  0
   -3.5534   -1.0587   -0.1368 C   0  0  0  0  0  0  0  0  0  0  0  0
   -4.2111   -0.0086    1.6179 H   0  0  0  0  0  0  0  0  0  0  0  0
   -2.6397   -1.9329   -1.8723 H   0  0  0  0  0  0  0  0  0  0  0  0
    4.7017   -1.8135    0.1116 O   0  0  0  0  0  0  0  0  0  0  0  0
    4.6609   -2.4234    0.8596 H   0  0  0  0  0  0  0  0  0  0  0  0
   -4.6472   -1.8814   -0.2499 O   0  0  0  0  0  0  0  0  0  0  0  0
   -5.2653   -1.6828    0.4654 H   0  0  0  0  0  0  0  0  0  0  0  0
   -0.0680    2.3975   -1.2234 C   0  0  0  0  0  0  0  0  0  0  0  0
    0.7758    3.0946   -1.2439 H   0  0  0  0  0  0  0  0  0  0  0  0
   -0.0714    1.8349   -2.1612 H   0  0  0  0  0  0  0  0  0  0  0  0
   -0.9881    2.9886   -1.1842 H   0  0  0  0  0  0  0  0  0  0  0  0
    0.0638    2.3723    1.2625 C   0  0  0  0  0  0  0  0  0  0  0  0
    0.9834    2.9649    1.2372 H   0  0  0  0  0  0  0  0  0  0  0  0
   -0.7806    3.0683    1.2954 H   0  0  0  0  0  0  0  0  0  0  0  0
    0.0655    1.7910    2.1888 H   0  0  0  0  0  0  0  0  0  0  0  0
  1  2  4  0  0  0  0
  2  3  4  0  0  0  0
  3  4  4  0  0  0  0
  4  5  4  0  0  0  0
  1  6  4  0  0  0  0
  5  6  4  0  0  0  0
  3  7  1  0  0  0  0
  6  8  1  0  0  0  0
  2  9  1  0  0  0  0
  5 10  1  0  0  0  0
  1 11  1  0  0  0  0
 11 12  1  0  0  0  0
 12 13  4  0  0  0  0
 12 14  4  0  0  0  0
 13 15  4  0  0  0  0
 13 16  1  0  0  0  0
 14 17  4  0  0  0  0
 14 18  1  0  0  0  0
 15 19  4  0  0  0  0
 17 19  4  0  0  0  0
 15 20  1  0  0  0  0
 17 21  1  0  0  0  0
  4 22  1  0  0  0  0
 22 23  1  0  0  0  0
 19 24  1  0  0  0  0
 24 25  1  0  0  0  0
 11 26  1  0  0  0  0
 26 27  1  0  0  0  0
 26 28  1  0  0  0  0
 26 29  1  0  0  0  0
 11 30  1  0  0  0  0
 30 31  1  0  0  0  0
 30 32  1  0  0  0  0
 30 33  1  0  0  0  0
M  END
