
  xtb     11152109233D
 xtb: 6.4.1 (afa7bdf)
 13 13  0     0  0            999 V2000
    0.5625    1.4155   -0.0002 C   0  0  0  0  0  0  0  0  0  0  0  0
   -0.7727    1.8160    0.0000 C   0  0  0  0  0  0  0  0  0  0  0  0
   -1.8048    0.8835    0.0001 C   0  0  0  0  0  0  0  0  0  0  0  0
   -1.5013   -0.4797    0.0001 C   0  0  0  0  0  0  0  0  0  0  0  0
   -0.1717   -0.9085    0.0000 C   0  0  0  0  0  0  0  0  0  0  0  0
    0.8313    0.0512   -0.0005 C   0  0  0  0  0  0  0  0  0  0  0  0
   -2.4655   -1.4483   -0.0005 O   0  0  0  0  0  0  0  0  0  0  0  0
   -3.3379   -1.0317    0.0026 H   0  0  0  0  0  0  0  0  0  0  0  0
   -1.0100    2.8743    0.0003 H   0  0  0  0  0  0  0  0  0  0  0  0
   -2.8425    1.2009    0.0006 H   0  0  0  0  0  0  0  0  0  0  0  0
    1.3669    2.1395   -0.0001 H   0  0  0  0  0  0  0  0  0  0  0  0
    0.0564   -1.9667    0.0006 H   0  0  0  0  0  0  0  0  0  0  0  0
    2.5078   -0.4881    0.0002 Cl  0  0  0  0  0  0  0  0  0  0  0  0
  1  2  4  0  0  0  0
  2  3  4  0  0  0  0
  3  4  4  0  0  0  0
  4  5  4  0  0  0  0
  1  6  4  0  0  0  0
  5  6  4  0  0  0  0
  4  7  1  0  0  0  0
  7  8  1  0  0  0  0
  2  9  1  0  0  0  0
  3 10  1  0  0  0  0
  1 11  1  0  0  0  0
  5 12  1  0  0  0  0
  6 13  1  0  0  0  0
M  END
