
  xtb     11152109233D
 xtb: 6.4.1 (afa7bdf)
 20 20  0     0  0            999 V2000
   -0.9394   -1.0348    0.0000 C   0  0  0  0  0  0  0  0  0  0  0  0
   -1.3705    0.2949    0.0000 C   0  0  0  0  0  0  0  0  0  0  0  0
   -0.4232    1.3196    0.0000 C   0  0  0  0  0  0  0  0  0  0  0  0
    0.9394    1.0348    0.0000 C   0  0  0  0  0  0  0  0  0  0  0  0
    1.3705   -0.2949    0.0000 C   0  0  0  0  0  0  0  0  0  0  0  0
    0.4232   -1.3196    0.0000 C   0  0  0  0  0  0  0  0  0  0  0  0
    0.7656   -2.3487    0.0000 H   0  0  0  0  0  0  0  0  0  0  0  0
   -1.6481   -1.8525    0.0000 H   0  0  0  0  0  0  0  0  0  0  0  0
   -2.6865    0.6865    0.0000 O   0  0  0  0  0  0  0  0  0  0  0  0
   -3.6798   -0.3326    0.0000 C   0  0  0  0  0  0  0  0  0  0  0  0
   -3.6087   -0.9635    0.8939 H   0  0  0  0  0  0  0  0  0  0  0  0
   -4.6413    0.1839    0.0000 H   0  0  0  0  0  0  0  0  0  0  0  0
   -3.6087   -0.9635   -0.8939 H   0  0  0  0  0  0  0  0  0  0  0  0
   -0.7656    2.3487    0.0000 H   0  0  0  0  0  0  0  0  0  0  0  0
    2.6865   -0.6865    0.0000 O   0  0  0  0  0  0  0  0  0  0  0  0
    3.6798    0.3326    0.0000 C   0  0  0  0  0  0  0  0  0  0  0  0
    4.6413   -0.1839    0.0000 H   0  0  0  0  0  0  0  0  0  0  0  0
    3.6087    0.9635   -0.8939 H   0  0  0  0  0  0  0  0  0  0  0  0
    3.6087    0.9635    0.8939 H   0  0  0  0  0  0  0  0  0  0  0  0
    1.6481    1.8525    0.0000 H   0  0  0  0  0  0  0  0  0  0  0  0
  1  2  4  0  0  0  0
  2  3  4  0  0  0  0
  3  4  4  0  0  0  0
  4  5  4  0  0  0  0
  1  6  4  0  0  0  0
  5  6  4  0  0  0  0
  6  7  1  0  0  0  0
  1  8  1  0  0  0  0
  2  9  1  0  0  0  0
  9 10  1  0  0  0  0
 10 11  1  0  0  0  0
 10 12  1  0  0  0  0
 10 13  1  0  0  0  0
  3 14  1  0  0  0  0
  5 15  1  0  0  0  0
 15 16  1  0  0  0  0
 16 17  1  0  0  0  0
 16 18  1  0  0  0  0
 16 19  1  0  0  0  0
  4 20  1  0  0  0  0
M  END
