
  xtb     11152109363D
 xtb: 6.4.1 (afa7bdf)
 18 18  0     0  0            999 V2000
    0.2603    1.6414   -0.0016 C   0  0  0  0  0  0  0  0  0  0  0  0
    0.8225    0.3641    0.0035 C   0  0  0  0  0  0  0  0  0  0  0  0
    0.0044   -0.7530    0.0165 C   0  0  0  0  0  0  0  0  0  0  0  0
   -1.3870   -0.6099    0.0195 C   0  0  0  0  0  0  0  0  0  0  0  0
   -1.9384    0.6722    0.0147 C   0  0  0  0  0  0  0  0  0  0  0  0
   -1.1134    1.7802    0.0033 C   0  0  0  0  0  0  0  0  0  0  0  0
    0.9174    2.4960   -0.0087 H   0  0  0  0  0  0  0  0  0  0  0  0
    0.4191   -1.7488    0.0199 H   0  0  0  0  0  0  0  0  0  0  0  0
   -3.0114    0.7909    0.0175 H   0  0  0  0  0  0  0  0  0  0  0  0
   -1.5468    2.7693    0.0011 H   0  0  0  0  0  0  0  0  0  0  0  0
   -2.1930   -1.7216   -0.0416 N   0  0  0  0  0  0  0  0  0  0  0  0
   -1.7810   -2.5945    0.2417 H   0  0  0  0  0  0  0  0  0  0  0  0
   -3.1533   -1.5909    0.2281 H   0  0  0  0  0  0  0  0  0  0  0  0
    2.1926    0.3234    0.0007 O   0  0  0  0  0  0  0  0  0  0  0  0
    2.8332   -0.9363   -0.0037 C   0  0  0  0  0  0  0  0  0  0  0  0
    3.8986   -0.7161   -0.0137 H   0  0  0  0  0  0  0  0  0  0  0  0
    2.5859   -1.5093    0.8943 H   0  0  0  0  0  0  0  0  0  0  0  0
    2.5688   -1.5116   -0.8954 H   0  0  0  0  0  0  0  0  0  0  0  0
  1  2  4  0  0  0  0
  2  3  4  0  0  0  0
  3  4  4  0  0  0  0
  4  5  4  0  0  0  0
  1  6  4  0  0  0  0
  5  6  4  0  0  0  0
  1  7  1  0  0  0  0
  3  8  1  0  0  0  0
  5  9  1  0  0  0  0
  6 10  1  0  0  0  0
  4 11  1  0  0  0  0
 11 12  1  0  0  0  0
 11 13  1  0  0  0  0
  2 14  1  0  0  0  0
 14 15  1  0  0  0  0
 15 16  1  0  0  0  0
 15 17  1  0  0  0  0
 15 18  1  0  0  0  0
M  END
