24
 xtb: 6.4.1 (afa7bdf)
C         1.21185061172051   -1.66762715445735    0.14583133655557
C         1.23318528817960   -0.29477380232031   -0.07957520090593
C         0.02414783426222    0.40079950039749   -0.20130283003550
C        -1.19737698969011   -0.26922348340959   -0.06067243609811
C        -1.20004186369258   -1.64121665921337    0.16901821596877
C        -0.00026113654648   -2.32112025938630    0.26397704743803
H        -2.12718532845477   -2.19625159333468    0.25884914694510
H        -0.00276747342125   -3.38534788927797    0.43896333192313
O        -2.30953858728504    0.51230964590357   -0.15638488263431
C        -3.58099332580615   -0.11832155365079   -0.09001091274968
H        -3.74188868182865   -0.61527601037043    0.87453390433686
H        -4.31848830016575    0.65886142965548   -0.23181187908022
H        -3.70975696682964   -0.87959780044887   -0.89567028962931
H         2.12810564735688   -2.20916286467840    0.24787477899573
O         2.36215018886793    0.46036123708572   -0.19331198181806
C         3.61656189337306   -0.18148077295187   -0.11615065465167
H         4.33220237703179    0.63814111672754   -0.23870326859713
H         3.74933628737400   -0.63411802792760    0.86646630137667
H         3.71817797843556   -0.89770651953475   -0.90382032594695
O         0.06323978147596    1.75918784365805   -0.49117355970250
C        -0.18707965345840    2.59230482232866    0.65778479572486
H         0.80793628589800    2.42350466995216    1.31242815551139
H        -0.04024959658989    3.61241413862620    0.28204570516367
H        -0.98195567314951    2.41212014182180    1.21279250986661
