
  xtb     11152109363D
 xtb: 6.4.1 (afa7bdf)
 24 24  0     0  0            999 V2000
    1.2061   -1.6543    0.1575 C   0  0  0  0  0  0  0  0  0  0  0  0
    1.2153   -0.2819   -0.0701 C   0  0  0  0  0  0  0  0  0  0  0  0
   -0.0000    0.4008   -0.2013 C   0  0  0  0  0  0  0  0  0  0  0  0
   -1.2152   -0.2821   -0.0702 C   0  0  0  0  0  0  0  0  0  0  0  0
   -1.2057   -1.6546    0.1574 C   0  0  0  0  0  0  0  0  0  0  0  0
    0.0003   -2.3211    0.2640 C   0  0  0  0  0  0  0  0  0  0  0  0
   -2.1274   -2.2029    0.2532 H   0  0  0  0  0  0  0  0  0  0  0  0
    0.0004   -3.3853    0.4390 H   0  0  0  0  0  0  0  0  0  0  0  0
   -2.3358    0.4861   -0.1749 O   0  0  0  0  0  0  0  0  0  0  0  0
   -3.5987   -0.1502   -0.1027 C   0  0  0  0  0  0  0  0  0  0  0  0
   -3.7452   -0.6251    0.8709 H   0  0  0  0  0  0  0  0  0  0  0  0
   -4.3254    0.6481   -0.2346 H   0  0  0  0  0  0  0  0  0  0  0  0
   -3.7141   -0.8889   -0.8994 H   0  0  0  0  0  0  0  0  0  0  0  0
    2.1279   -2.2025    0.2535 H   0  0  0  0  0  0  0  0  0  0  0  0
    2.3358    0.4866   -0.1748 O   0  0  0  0  0  0  0  0  0  0  0  0
    3.5988   -0.1496   -0.1034 C   0  0  0  0  0  0  0  0  0  0  0  0
    4.3253    0.6489   -0.2359 H   0  0  0  0  0  0  0  0  0  0  0  0
    3.7460   -0.6243    0.8702 H   0  0  0  0  0  0  0  0  0  0  0  0
    3.7138   -0.8884   -0.9001 H   0  0  0  0  0  0  0  0  0  0  0  0
   -0.0001    1.7592   -0.4912 O   0  0  0  0  0  0  0  0  0  0  0  0
   -0.0007    2.5923    0.6578 C   0  0  0  0  0  0  0  0  0  0  0  0
    0.8942    2.4182    1.2628 H   0  0  0  0  0  0  0  0  0  0  0  0
   -0.0010    3.6124    0.2821 H   0  0  0  0  0  0  0  0  0  0  0  0
   -0.8957    2.4174    1.2625 H   0  0  0  0  0  0  0  0  0  0  0  0
  1  2  4  0  0  0  0
  2  3  4  0  0  0  0
  3  4  4  0  0  0  0
  4  5  4  0  0  0  0
  1  6  4  0  0  0  0
  5  6  4  0  0  0  0
  5  7  1  0  0  0  0
  6  8  1  0  0  0  0
  4  9  1  0  0  0  0
  9 10  1  0  0  0  0
 10 11  1  0  0  0  0
 10 12  1  0  0  0  0
 10 13  1  0  0  0  0
  1 14  1  0  0  0  0
  2 15  1  0  0  0  0
 15 16  1  0  0  0  0
 16 17  1  0  0  0  0
 16 18  1  0  0  0  0
 16 19  1  0  0  0  0
  3 20  1  0  0  0  0
 20 21  1  0  0  0  0
 21 22  1  0  0  0  0
 21 23  1  0  0  0  0
 21 24  1  0  0  0  0
M  END
